Circuit: * E:\Arduino\Ajax\SunRiseClock\Others\Draft1.asc

Warning: Multiple definitions of model "2scr375p" Type: BJT
Warning: Multiple definitions of model "bc857b" Type: BJT
Warning: Multiple definitions of model "bc847c" Type: BJT
Warning: Multiple definitions of model "bc847b" Type: BJT
Direct Newton iteration for .op point succeeded.

Date: Mon Jun  3 16:20:29 2024
Total elapsed time: 0.240 seconds.

tnom = 27
temp = 27
method = modified trap
totiter = 2100
traniter = 2088
tranpoints = 1045
accept = 1045
rejected = 0
matrix size = 12
fillins = 0
solver = Normal
Avg thread counts: 2.3/3.6/3.6/2.3
Matrix Compiler1: 624 bytes object code size  1.3/1.2/[0.6]
Matrix Compiler2: 920 bytes object code size  1.0/1.6/[0.5]

