Circuit: * E:\Arduino\Ajax\SunRiseClock\Others\FP7102.asc

Limiting rise time of source v1 to 0.005
Limiting fall time of source v1 to 0.005
WARNING: Node NC_01 is floating.

WARNING: Less than two connections to node nc_01.  This node is used by c1.
Direct Newton iteration for .op point succeeded.

Date: Mon May 27 12:56:41 2024
Total elapsed time: 0.161 seconds.

tnom = 27
temp = 27
method = modified trap
totiter = 2217
traniter = 2208
tranpoints = 1105
accept = 1090
rejected = 15
matrix size = 9
fillins = 0
solver = Normal
Avg thread counts: 2.2/3.5/3.5/2.2
Matrix Compiler1: 314 bytes object code size  0.4/0.3/[0.2]
Matrix Compiler2: 599 bytes object code size  0.3/0.3/[0.2]

